! b3lyp aug-cc-pVTZ 
 %pal nprocs 16 
 end 
 %maxcore 4000 
 *xyz 0 1
   C   -1.96110577969767      0.29938269716070     -1.06400012069469
  C   -0.49308095078989     -0.12016708127498     -0.99544597591277
  C   -0.02944990202297     -0.36035484962587      0.43552286330426
  H   -0.05402980040939      0.55520469258354      1.02753739731452
  H   1.00413414468453     -0.71258518113367      0.46056508233536
  H   -0.64525380960763     -1.11695601450734      0.92720772519519
  O   -0.40618744032384     -1.29600824896532     -1.77022617885435
  H   0.11858690987999      0.68715426687054     -1.42565890826120
  H   0.51265790049415     -1.56687033713477     -1.81798574137439
  O   -2.26261751785559      1.40162695424461     -0.24825721950971
  H   -2.57885760798664     -0.57706266648355     -0.82096893694159
  H   -2.20657192244557      0.58452398314042     -2.08833901720075
  H   -2.27303866691949      1.11238510212567      0.66574805760010
* 
