! b3lyp aug-cc-pVTZ 
 %pal nprocs 16 
 end 
 %maxcore 4000 
 *xyz 0 1
   C   -1.84410567537720      0.53925033708561     -0.87174990898394
  C   -0.50253606426959     -0.22374468346549     -0.99529455939079
  C   0.45993900432979      0.15073746675216      0.12315216543923
  H   0.72370304126653      1.20822547075243      0.07968837175037
  H   1.38255840524733     -0.42682084586514      0.05832009782707
  H   0.01099828429014     -0.02958626159328      1.10427979602697
  O   -0.72100551700635     -1.61691030910204     -1.03311748103679
  H   -0.04323768851804      0.03165358524333     -1.95378598640832
  H   -0.96220344997303     -1.89424322772155     -0.14461425152075
  O   -2.81478589068544     -0.18847292866901     -0.16380666473570
  H   -2.20819613387447      0.80244888536973     -1.87402812527705
  H   -1.69708222538551      1.47964046171970     -0.33661152189149
  H   -3.05886053304417     -0.94190463350644     -0.70673290479880
* 
