! b3lyp aug-cc-pVTZ 
 %pal nprocs 16 
 end 
 %maxcore 4000 
 *xyz 0 1
   C   -2.01499074307979      0.23198527285758     -0.70577382309611
  C   -0.50580092264310      0.00268598215001     -0.74853569342502
  C   -0.06826384193392     -0.88565797660066      0.41154598926358
  H   -0.27221406474615     -0.41478632592084      1.37435933306650
  H   1.00320110347982     -1.09313652469411      0.37447458464398
  H   -0.59101818869150     -1.84347652606946      0.38634370007892
  O   -0.20047175169466     -0.59656778763121     -1.98611606579007
  H   -0.00281639403195      0.97883266885160     -0.64077110749447
  H   0.75312228225712     -0.65596738381600     -2.07486333414680
  O   -2.44746045763528      1.39496365239723     -1.36023909285322
  H   -2.33594742678285      0.22952493397376      0.34654726614019
  H   -2.51038714241690     -0.61254977218445     -1.18827945404996
  H   -2.08176689508081      2.15442310368656     -0.90299327533754
* 
