! hf aug-cc-pVTZ 
 %pal nprocs 16 
 end 
 %maxcore 4000 
 *xyz 0 1
   C   -1.85890040121462      0.58049691184473     -1.00659215372544
  C   -0.55413667401482     -0.20489914489537     -0.99504280322496
  C   0.26998266763134      0.05596903377526      0.25612839314874
  H   0.56177393683226      1.10488549509839      0.31698832793990
  H   1.19275377960663     -0.53036714549527      0.25394056439385
  H   -0.29063378519170     -0.18913444852579      1.15774943489347
  O   -0.91972497247782     -1.56723104788148     -1.11366802760196
  H   0.02863032927594      0.11794926694270     -1.87171966276251
  H   -0.16230610432777     -2.11474573746594     -0.89748185051033
  O   -2.69886561975707      0.25658800253936      0.06667029504473
  H   -2.35437921242208      0.42513433319973     -1.97571794276795
  H   -1.63358420022025      1.64673527330306     -0.93282808869990
  H   -2.85542418672003     -0.69110747543938      0.02727254087236
* 
