! hf aug-cc-pVTZ 
 %pal nprocs 16 
 end 
 %maxcore 4000 
 *xyz 0 1
   C   -1.95010880179634      0.32701654684152     -1.08189901770216
  C   -0.48863782244756     -0.12798473757870     -1.00256656077803
  C   -0.01581921672245     -0.31304766766337      0.43362316353384
  H   -0.00017787776107      0.63117767212405      0.97834779003199
  H   1.00423555585447     -0.70228088788924      0.46031010396875
  H   -0.64768156474148     -1.02412337251186      0.97159782984760
  O   -0.44492759006540     -1.34598944236412     -1.71514443639263
  H   0.14759858335900      0.63413447548217     -1.47665414051599
  H   0.46996256490916     -1.62225841491255     -1.79733839296905
  O   -2.28727538643359      1.33156191022355     -0.16134710424227
  H   -2.58056489613638     -0.56498379827780     -0.96042226617394
  H   -2.15564296998976      0.72452707785092     -2.07696631193723
  H   -2.32577502102858      0.94252395567543      0.71415837032911
* 
