! b3lyp aug-cc-pVTZ 
 %pal nprocs 16 
 end 
 %maxcore 4000 
 *xyz 0 1
   C   -1.85568501190963      0.52250497383839     -0.80236761460357
  C   -0.52189179886900     -0.27594400222556     -0.94201634568919
  C   0.51612801497680      0.19909766218435      0.06376256138444
  H   0.73541470885620      1.25966808372884     -0.07115342160044
  H   1.45038815380427     -0.35244459381659     -0.04229957001975
  H   0.15864915435050      0.07093248923145      1.08958036917250
  O   -0.73732524825018     -1.66460408588063     -0.85322348755647
  H   -0.12303839625674     -0.11897565862505     -1.94743364531906
  H   -1.07733837622186     -1.85558366399100      0.02617435271365
  O   -2.93732583558361     -0.27200653776757     -0.39390590491525
  H   -2.07202451241140      1.03916060144758     -1.74724647870401
  H   -1.74921867764349      1.30018613504069     -0.04324391514483
  H   -3.06154661784189     -0.96171808616491     -1.05092787271801
* 
