! b3lyp aug-cc-pVTZ 
 %pal nprocs 16 
 end 
 %maxcore 4000 
 *xyz 0 1
   C   -2.02241466371584      0.22147407924911     -0.87479554768162
  C   -0.50908418726156     -0.06923281767969     -0.87511207262807
  C   -0.03850432939886     -0.67961490392923      0.43791677379598
  H   -0.26515423566032     -0.02114964966867      1.27888741874538
  H   1.04157817649475     -0.84384300072787      0.44739792840676
  H   -0.52595257958180     -1.63828121157643      0.62430207997877
  O   -0.24262618869953     -0.91440046883586     -1.97340040377019
  H   0.00134112443728      0.89662614519580     -1.01215596281775
  H   0.69029291539182     -1.13941000454535     -1.96995751463826
  O   -2.34447837971590      1.58882737545962     -0.91824381745904
  H   -2.50339878358226     -0.28027460742104     -0.02330884828672
  H   -2.44756181551125     -0.21804890863378     -1.77739536701394
  H   -2.10885149619652      1.98760129011338     -0.07843563963133
* 
