! b3lyp aug-cc-pVTZ 
 %pal nprocs 16 
 end 
 %maxcore 4000 
 *xyz 0 1
   C   -1.99306834456512      0.47874608855135     -0.37761968981804
  C   -0.48430873914180      0.15826209296963     -0.49170153440037
  C   -0.14198877270595     -1.13327753688232      0.22599501296753
  H   -0.43889858746367     -1.07853576115070      1.27472032213634
  H   0.93012712125287     -1.33911968447855      0.20543416734221
  H   -0.66133367226930     -1.97910226540936     -0.22613507862292
  O   -0.17529007018936      0.11576964906250     -1.87119594962369
  H   0.08035809577175      0.97810473445997     -0.02471780660838
  H   0.77633059484889      0.09027111213123     -1.98425202609212
  O   -2.53354982743250      1.07196788984381     -1.51881842831696
  H   -2.14946278616370      1.13926812472226      0.47944464943560
  H   -2.52599888386217     -0.45818114463483     -0.14934071729707
  H   -1.95773057107994      0.84610001781500     -2.25611389410213
* 
