! b3lyp aug-cc-pVTZ 
 %pal nprocs 16 
 end 
 %maxcore 4000 
 *xyz 0 1
   C   -1.92005189355639      0.42487355540934     -1.10414723616057
  C   -0.49387257562122     -0.16985341652883     -1.01051578308809
  C   0.06457021028115     -0.18332509869386      0.40550002641602
  H   0.11841760876229      0.81920937527293      0.82713211773688
  H   1.07789901438968     -0.59108602086128      0.40888908030947
  H   -0.53291058888169     -0.80794633138864      1.07295049724243
  O   -0.58089568950370     -1.47645566131383     -1.54378196866794
  H   0.18109579489477      0.44465836890123     -1.62398599624185
  H   0.30525888859001     -1.83870067499816     -1.61215043941250
  O   -2.38268501768810      1.07540156791471      0.05083533131018
  H   -2.59071881813931     -0.38960389339245     -1.40556424085972
  H   -1.95484353453687      1.16883891359171     -1.90027169740767
  H   -2.56607784199061      0.41426263308711      0.72080933582334
* 
