! hf aug-cc-pVTZ 
 %pal nprocs 16 
 end 
 %maxcore 4000 
 *xyz 0 1
   C   -1.86210763816109      0.59582188828407     -0.98274968675688
  C   -0.56460007962683     -0.20994022126272     -0.98775387326139
  C   0.29393683973315      0.07983392744272      0.23455633729802
  H   0.62422859898571      1.11909961181086      0.23953070415876
  H   1.19556381429803     -0.53862066943615      0.24884655930861
  H   -0.26088391738432     -0.10155797796940      1.15518760947671
  O   -0.95583810662577     -1.56925111997944     -1.03640905769710
  H   -0.00044189611888      0.06839588938233     -1.89027272869433
  H   -0.20061556501858     -2.12198819030339     -0.82670635559415
  O   -2.76003934341235      0.16490067175721     -0.00000300939778
  H   -2.31029752909755      0.54619573386694     -1.98623243999585
  H   -1.63456961098819      1.64636524886319     -0.79001486216001
  H   -2.83915000958333     -0.78898147545624     -0.09228016968459
* 
