! hf aug-cc-pVTZ 
 %pal nprocs 16 
 end 
 %maxcore 4000 
 *xyz 0 1
   C   -1.99808095975227      0.52082875274706     -0.35181748436480
  C   -0.47779814051420      0.20205172058817     -0.44440789406291
  C   -0.15677222526165     -1.15769842154866      0.15127455982976
  H   -0.44692305167949     -1.19665834185948      1.20213835663299
  H   0.91219852040635     -1.38062166467307      0.10774480834099
  H   -0.69364986497463     -1.94883360177095     -0.37435542770266
  O   -0.12496026318128      0.27418132975940     -1.81090267179419
  H   0.07437347998026      0.96659138049962      0.11874358563955
  H   0.81119206433330      0.09188656838329     -1.91169692498193
  O   -2.60336719710916      0.78538672850246     -1.58195809727548
  H   -2.13514586926682      1.37698299111763      0.31822256607986
  H   -2.50341322784448     -0.32809022176885      0.12731645865775
  H   -1.93246770813591      0.68426609702338     -2.26460280799895
* 
