! b3lyp aug-cc-pVTZ 
 %pal nprocs 16 
 end 
 %maxcore 4000 
 *xyz 0 1
   C   -1.98266499341406      0.25854539520470     -1.01363320091625
  C   -0.50103714343507     -0.10818160419944     -0.97046490277153
  C   -0.03606049535209     -0.46123678486390      0.43505564867477
  H   -0.16201122189354      0.38005503271244      1.11873844954307
  H   1.02619222428965     -0.71544761796745      0.45778526444594
  H   -0.59492384067286     -1.31241026512575      0.82864158986011
  O   -0.33953303372983     -1.18101526752516     -1.87110135015572
  H   0.06001546556848      0.77502163502802     -1.31182162615988
  H   0.57265190149786     -1.47613875554132     -1.83930909768126
  O   -2.24953911094988      1.51506052467521     -0.44396583466693
  H   -2.57513443515442     -0.54686808302327     -0.55589010239205
  H   -2.28973616506505      0.32197260131736     -2.05929546552316
  H   -2.20303359468916      1.44091650630855      0.51095965474288
* 
