! hf aug-cc-pVTZ 
 %pal nprocs 16 
 end 
 %maxcore 4000 
 *xyz 0 1
   C   -1.88373911785320      0.49970146000823     -1.07794035402934
  C   -0.52191688723069     -0.20696582834229     -1.00384164823563
  C   0.16255086320693     -0.06605137329419      0.34549789210926
  H   0.27800193188140      0.98179500184478      0.62086998174793
  H   1.16201442658275     -0.50638288239720      0.31421550484988
  H   -0.39358210166316     -0.55950986238016      1.14201550803128
  O   -0.72856487026499     -1.55703159800438     -1.37558239841934
  H   0.12173620360903      0.27764575309189     -1.75468230432219
  H   0.10553311678587     -2.02657461587725     -1.30302091212584
  O   -2.51368657452949      0.72637251067880      0.15697205591557
  H   -2.52075348519682     -0.04954880390506     -1.78197242774636
  H   -1.72941423047056      1.49326795278174     -1.50271880413371
  H   -2.81299371785705     -0.11644439720491      0.50588693335849
* 
