! hf aug-cc-pVTZ 
 %pal nprocs 16 
 end 
 %maxcore 4000 
 *xyz 0 1
   C   -1.85945383673357      0.56248745646974     -1.02772656066210
  C   -0.54537104985211     -0.20455101417995     -0.99916514347857
  C   0.24678470000602      0.02912884716958      0.27675760798578
  H   0.48816416341729      1.08581174940514      0.39534562012308
  H   1.19490262735722     -0.51448368697072      0.25556687320849
  H   -0.30978397358140     -0.28639243015545      1.15831204585574
  O   -0.87561892741353     -1.56818235746963     -1.18793380735749
  H   0.05279053407853      0.16182338943867     -1.84881576361235
  H   -0.11090789216797     -2.10666518843089     -0.97393823433898
  O   -2.64756306626714      0.36227574283061      0.11491334927446
  H   -2.39533395662762      0.30856226137669     -1.95257364791050
  H   -1.63824360061454      1.63128941859384     -1.07235722332988
  H   -2.87518016460115     -0.57083087107766      0.14731391124233
* 
