! b3lyp aug-cc-pVTZ 
 %pal nprocs 16 
 end 
 %maxcore 4000 
 *xyz 0 1
   C   -1.83825732924055      0.54332244006339     -0.90680524513720
  C   -0.49633092547350     -0.20268715229571     -1.01407299803951
  C   0.42714141581957      0.12679545289467      0.15021301886771
  H   0.69237702557908      1.18448284369404      0.15810463000926
  H   1.35188945323419     -0.44831126317861      0.09212586535094
  H   -0.05467451000270     -0.09286450085179      1.10702526275260
  O   -0.71288380097297     -1.59446230006697     -1.11565065816862
  H   -0.00897811924714      0.09739004128373     -1.94621319923739
  H   -0.89358371829219     -1.92446505917237     -0.23131086512369
  O   -2.75020456983146     -0.11908542318619     -0.06666737812080
  H   -2.25875954474529      0.67986795500508     -1.91232736352065
  H   -1.68367116301071      1.54300102559626     -0.49522908542771
  H   -3.04887865681633     -0.90271074278552     -0.53349295720493
* 
